Version 4
SHEET 1 1424 680
WIRE -128 -224 -480 -224
WIRE 976 -224 896 -224
WIRE -480 -192 -480 -224
WIRE 896 -192 896 -224
WIRE -128 -160 -128 -224
WIRE -128 -160 -256 -160
WIRE -32 -160 -128 -160
WIRE -256 -128 -256 -160
WIRE -32 -128 -32 -160
WIRE 976 -48 976 -224
WIRE 944 0 864 0
WIRE 1200 48 1120 48
WIRE 1248 48 1200 48
WIRE 1200 64 1200 48
WIRE -256 80 -256 -48
WIRE -208 80 -256 80
WIRE -32 80 -32 32
WIRE -32 80 -80 80
WIRE 864 96 864 80
WIRE 944 96 864 96
WIRE -256 112 -256 80
WIRE -32 112 -32 80
WIRE 1200 144 1200 128
WIRE 1056 192 1056 112
WIRE -256 304 -256 192
WIRE -128 304 -256 304
WIRE -32 304 -32 272
WIRE -32 304 -128 304
WIRE -128 368 -128 304
WIRE 976 368 976 144
WIRE 1056 368 1056 272
FLAG -480 48 0
FLAG -480 -32 Vc
FLAG -480 -112 0
FLAG -80 80 Vo+
FLAG -128 368 0
FLAG -208 80 Vo-
FLAG 976 368 0
FLAG 944 -32 Vo+
FLAG 944 128 Vo-
FLAG 1056 368 0
FLAG 1248 48 Vout
FLAG 896 -112 0
FLAG 1200 144 0
SYMBOL bv -32 176 R0
WINDOW 0 35 48 Left 2
SYMATTR InstName Bres
SYMATTR Value V=-V(Vc)*I(Bres)*1
SYMBOL voltage -480 -48 R0
WINDOW 3 -57 55 Left 2
WINDOW 123 0 0 Left 0
WINDOW 39 0 0 Left 0
SYMATTR Value 0
SYMATTR InstName Vc
SYMBOL res -48 96 R0
SYMATTR InstName Rnom
SYMATTR Value 120
SYMBOL voltage -480 -208 R0
WINDOW 123 0 0 Left 0
WINDOW 39 0 0 Left 0
SYMATTR InstName Vs
SYMATTR Value 3
SYMBOL bv -32 -64 R0
WINDOW 0 35 48 Left 2
SYMATTR InstName Bres1
SYMATTR Value V=V(Vc)*I(Bres1)*1
SYMBOL res -48 -144 R0
SYMATTR InstName Rnom1
SYMATTR Value 120
SYMBOL res -272 -144 R0
SYMATTR InstName R1
SYMATTR Value 120
SYMBOL res -272 96 R0
SYMATTR InstName R2
SYMATTR Value 120
SYMBOL OpAmps\\AD8220 976 48 R0
SYMATTR InstName U1
SYMBOL voltage 896 -208 R0
WINDOW 123 0 0 Left 0
WINDOW 39 0 0 Left 0
SYMATTR InstName V1
SYMATTR Value 5
SYMBOL res 848 -16 R0
SYMATTR InstName R3
SYMATTR Value 1k
SYMBOL voltage 1056 176 R0
WINDOW 123 0 0 Left 0
WINDOW 39 0 0 Left 0
SYMATTR InstName VREF
SYMATTR Value 2.5
SYMBOL cap 1184 64 R0
SYMATTR InstName C1
SYMATTR Value 10p
TEXT 104 112 Left 2 ;Strain Gauge Model\nRstrain = Rnom + (lamda*Fext)\nRstrain = Rnom + (V(Vc)*I(Bres)*R), here R=1 for simplicity
TEXT 56 400 Left 2 !.dc Vc -3 3 0.5
TEXT 144 -88 Left 2 ;Bres1 & Bres are complementary\nWhen Vc<0: Bres1 is compressed and Bres is tensed\nWhen Vc>0: Bres1 is tensed and Bres is compressed
TEXT 1024 -152 Left 2 ;RG (Gain Resistor) = 1k\nGain = 50.4\nReference Voltage = 2.5V
TEXT 1256 96 Left 2 ;ADC input cap
